Version 4
SHEET 1 2136 1304
WIRE 480 112 480 96
WIRE 608 112 480 112
WIRE 688 112 608 112
WIRE 816 112 688 112
WIRE 816 144 816 112
WIRE 608 224 608 112
WIRE 688 224 688 112
WIRE 480 240 480 112
WIRE 816 288 816 224
WIRE 480 400 480 320
WIRE 608 400 608 288
WIRE 608 400 480 400
WIRE 688 400 688 304
WIRE 688 400 608 400
WIRE 816 400 816 352
WIRE 816 400 688 400
WIRE 976 400 976 368
WIRE 976 400 816 400
WIRE 704 512 672 512
WIRE 832 512 768 512
WIRE 464 592 -240 592
WIRE 560 592 528 592
WIRE 1344 592 1280 592
WIRE 1424 592 1344 592
WIRE 672 608 672 512
WIRE 736 608 672 608
WIRE 832 608 832 512
WIRE 832 608 816 608
WIRE 912 608 832 608
WIRE 928 608 912 608
WIRE 1424 624 1424 592
WIRE 560 672 560 592
WIRE 704 672 560 672
WIRE 1360 672 1328 672
WIRE 112 704 96 704
WIRE 1280 720 1280 592
WIRE 1280 720 1248 720
WIRE 1456 720 1424 720
WIRE 96 736 96 704
WIRE 672 752 672 608
WIRE 736 752 672 752
WIRE -32 768 -96 768
WIRE 1008 768 800 768
WIRE 1184 768 1088 768
WIRE -240 784 -240 592
WIRE -160 784 -240 784
WIRE 560 784 384 784
WIRE 576 784 560 784
WIRE 704 784 704 672
WIRE 704 784 656 784
WIRE 736 784 704 784
WIRE -64 800 -96 800
WIRE 384 800 384 784
WIRE 672 816 672 752
WIRE 1328 816 1328 672
WIRE 1328 816 1248 816
WIRE 1344 816 1328 816
WIRE 1456 816 1456 720
WIRE 1456 816 1424 816
WIRE 1568 816 1456 816
WIRE 1680 816 1568 816
WIRE 1728 816 1680 816
WIRE 1888 816 1728 816
WIRE 560 832 560 784
WIRE 1568 832 1568 816
WIRE 1728 832 1728 816
WIRE 96 848 96 816
WIRE 160 848 96 848
WIRE 224 848 160 848
WIRE 224 864 224 848
WIRE 1888 896 1888 816
WIRE -64 912 -64 800
WIRE -64 912 -256 912
WIRE 384 912 384 880
WIRE 384 912 272 912
WIRE 480 912 384 912
WIRE 480 928 480 912
WIRE -32 944 -32 768
WIRE 96 944 96 848
WIRE -320 976 -320 944
WIRE -256 1024 -256 912
WIRE -256 1024 -272 1024
WIRE -192 1056 -320 1056
WIRE -144 1056 -192 1056
WIRE -32 1056 -32 1024
WIRE -32 1056 -64 1056
WIRE 96 1056 96 1008
WIRE 96 1056 -32 1056
WIRE 224 1056 224 944
WIRE 224 1056 96 1056
WIRE 480 1056 480 1008
WIRE 480 1056 224 1056
WIRE 560 1056 560 896
WIRE 560 1056 480 1056
WIRE 672 1056 672 896
WIRE 672 1056 560 1056
WIRE 1568 1056 1568 896
WIRE 1568 1056 672 1056
WIRE 1728 1056 1728 896
WIRE 1728 1056 1568 1056
WIRE 1888 1056 1888 976
WIRE 1888 1056 1728 1056
WIRE -192 1120 -192 1056
FLAG 480 96 Vcc
FLAG 160 848 Ref-3v3
FLAG 768 736 Vcc
FLAG 1344 592 Vcc
FLAG 1680 816 Output
FLAG 912 608 Output
FLAG 976 288 -Vcc
FLAG 768 800 -Vcc
FLAG -192 1120 0
FLAG 112 704 Vcc
FLAG -128 816 -Vcc
FLAG -128 752 Vcc
FLAG -320 864 Ref-3v3
FLAG 480 400 0
SYMBOL cap 592 224 R0
SYMATTR InstName C1
SYMATTR Value 10mF
SYMBOL res 672 208 R0
SYMATTR InstName R1
SYMATTR Value 2.21K
SYMBOL res 800 128 R0
SYMATTR InstName R2
SYMATTR Value 1K
SYMBOL LED 800 288 R0
SYMATTR InstName D5
SYMBOL res 80 720 R0
SYMATTR InstName R3
SYMATTR Value 3.01K
SYMBOL OpAmps/ADTL082 768 704 R0
SYMATTR InstName U1
SYMBOL res 832 592 R90
WINDOW 0 0 56 VBottom 2
WINDOW 3 32 56 VTop 2
SYMATTR InstName R5
SYMATTR Value 47k
SYMBOL cap 544 832 R0
SYMATTR InstName C2
SYMATTR Value 100nF
SYMBOL Res 656 800 R0
SYMATTR InstName R4
SYMATTR Value 23.5k
SYMBOL npn 1360 624 R0
SYMATTR InstName Q1
SYMATTR Value 2N3055
SYMBOL npn 1184 720 R0
SYMATTR InstName Q2
SYMATTR Value BC547B
SYMBOL Res 1440 800 R90
WINDOW 0 0 56 VBottom 2
WINDOW 3 32 56 VTop 2
SYMATTR InstName R8
SYMATTR Value 1k
SYMBOL Res 1104 752 R90
WINDOW 0 0 56 VBottom 2
WINDOW 3 32 56 VTop 2
SYMATTR InstName R9
SYMATTR Value 1k
SYMBOL cap 704 528 R270
WINDOW 0 32 32 VTop 2
WINDOW 3 0 32 VBottom 2
SYMATTR InstName C3
SYMATTR Value 100nF
SYMBOL Cap 1552 832 R0
SYMATTR InstName C4
SYMATTR Value 200µF
SYMBOL Cap 1712 832 R0
SYMATTR InstName C5
SYMATTR Value 100nF
SYMBOL Res -48 1040 R90
WINDOW 0 0 56 VBottom 2
WINDOW 3 32 56 VTop 2
SYMATTR InstName R11
SYMATTR Value 0.33
SYMBOL pot 208 848 R0
SYMATTR InstName U2
SYMATTR Value Rtot=10K wiper=.001
SYMBOL Res 464 912 R0
SYMATTR InstName R7
SYMATTR Value 1Meg
SYMBOL Res 368 784 R0
SYMATTR InstName R10
SYMATTR Value 18.2K
SYMBOL Res 672 768 R90
WINDOW 0 0 56 VBottom 2
WINDOW 3 32 56 VTop 2
SYMATTR InstName R12
SYMATTR Value 2.21K
SYMBOL voltage 976 384 M180
WINDOW 0 24 96 Left 2
WINDOW 3 24 16 Left 2
SYMATTR InstName V2
SYMATTR Value 5
SYMBOL zener 112 1008 R180
WINDOW 0 24 64 Left 2
WINDOW 3 24 0 Left 2
SYMATTR InstName D6
SYMATTR Value mzd
SYMBOL OpAmps/ADTL082 -128 720 M0
SYMATTR InstName U3
SYMBOL Res -48 928 R0
SYMATTR InstName R6
SYMATTR Value 10k
SYMBOL pot -336 960 R0
WINDOW 3 -221 36 Left 2
SYMATTR InstName U4
SYMATTR Value Rtot=10K wiper=.999
SYMBOL Res -304 848 M0
SYMATTR InstName R13
SYMATTR Value 82k
SYMBOL voltage 480 224 R0
SYMATTR InstName V1
SYMATTR Value 20
SYMATTR SpiceLine Rser=1
SYMBOL Res 1872 880 R0
SYMATTR InstName R14
SYMATTR Value 10
SYMBOL diode 528 576 R90
WINDOW 0 0 32 VBottom 2
WINDOW 3 32 32 VTop 2
SYMATTR InstName D1
SYMATTR Value 1N4148
TEXT -104 296 Left 2 !.tran 0m 300m 200m
TEXT -104 320 Left 2 !.include pot.sub
TEXT -104 344 Left 2 !.model mzd ako:  BZX84B6V2L bv=3.3
